         250
  Built with Packmol                                             
  Ar           2.919248       15.250429        3.347527
  Ar          13.441756        2.069019       14.091080
  Ar           4.020042        9.298791        0.984504
  Ar           8.613820       12.316171       17.976146
  Ar           1.051837        8.743741       11.449963
  Ar          18.115671        6.816432       18.294386
  Ar           8.648840        7.529048        5.162782
  Ar          12.105759        9.053951       11.669359
  Ar           0.030449       14.795590        9.975897
  Ar           5.035106        0.288195        1.627639
  Ar          12.927313       17.330770        8.106265
  Ar          10.635180        2.191079       17.895632
  Ar           6.414494        6.184983        7.622729
  Ar           3.860504       12.620109        4.701034
  Ar           3.132704       14.620129       17.913539
  Ar           3.368824       13.749723       15.066245
  Ar           8.162228       17.687797        4.465441
  Ar           9.219625       15.891559        0.396660
  Ar          13.638273        4.164289       12.939149
  Ar          -0.002943       18.168866       15.730958
  Ar          17.140809       15.390412       11.275140
  Ar           4.336230       18.722821        5.902006
  Ar          19.570697        8.583131        4.887036
  Ar          18.535784       19.860632       14.943353
  Ar          10.850253        8.557680        3.507205
  Ar           9.667910       15.725676        3.962943
  Ar           4.872295        7.928273        9.437504
  Ar          14.939113        0.267190       15.195507
  Ar          11.696746       20.000881       12.954758
  Ar          13.260758       17.465649        0.770768
  Ar          17.226574       16.430907       19.565039
  Ar          14.653265        1.123687        4.255688
  Ar          13.925247        2.236594       19.065738
  Ar          10.553839        1.201526        2.958588
  Ar          19.978706        3.063405       18.300045
  Ar          17.191486       10.888537        3.726613
  Ar          18.433425        6.081102        4.849959
  Ar          14.237556        6.991932       12.845721
  Ar           7.878875       -0.000610       10.139091
  Ar           2.666530        5.418688        1.485653
  Ar           4.609861       19.085804        1.470461
  Ar          18.594013       15.808329        8.372148
  Ar           7.418310       10.781457       14.871132
  Ar          12.631160       16.757869       16.149416
  Ar          14.567903       18.413662       10.733090
  Ar          11.947975        2.794053        8.755739
  Ar           5.586665       12.891556        6.344418
  Ar          18.023710       17.649935       16.604269
  Ar           3.064778       19.121702       15.986511
  Ar           1.548068       18.358905       13.891993
  Ar          10.071966       16.962999       19.847852
  Ar          13.070086        3.128203        0.497262
  Ar          13.231235        1.184581       16.681278
  Ar           1.762139        2.563068        7.296641
  Ar           7.031011       11.159909        1.112275
  Ar           9.423681        5.483969       16.134871
  Ar          13.440851       12.156008       18.670789
  Ar          17.382226       19.829886        9.153379
  Ar           5.286287        5.880336       13.261928
  Ar           8.680221       17.683063       16.614024
  Ar           5.664882        8.421221       12.049121
  Ar          16.944605        9.002265       17.068604
  Ar           6.802290       19.768387       19.464362
  Ar          11.403519        3.552925       15.950620
  Ar           8.630974        9.424254       11.416031
  Ar           2.239461       11.930699       15.711099
  Ar           2.352107       15.753360        6.221508
  Ar          17.998958        9.951326        5.638688
  Ar           7.077522       19.604780        2.309757
  Ar           3.697841        2.986318       13.576136
  Ar          18.718182        1.596934        6.731096
  Ar          10.373826       12.381093        4.401377
  Ar           7.713918        3.915710        6.565214
  Ar           8.706218       13.937320        2.128385
  Ar           4.390517       14.510303        1.548925
  Ar           4.135054        1.753378        0.020360
  Ar           0.390348        7.725151       17.059213
  Ar          10.602864       11.330901       10.613137
  Ar          18.745332        4.598611       12.477478
  Ar           8.181410        1.924874       17.503128
  Ar           7.256277       19.132546        6.761507
  Ar          15.830971        4.482787        3.756978
  Ar          17.080500        5.524970        2.149254
  Ar          12.008888        3.304876        6.529843
  Ar          15.391319       15.977102        8.398860
  Ar           1.259543        4.368031       16.346713
  Ar           2.579564       18.944947        8.634546
  Ar          13.279402        8.429407        2.039076
  Ar          11.292937       14.852129        5.321646
  Ar          15.539599       13.814395       11.748677
  Ar           8.973909       12.700667       11.493197
  Ar           3.445269        5.062208       12.033685
  Ar           3.639586        0.219051       16.180736
  Ar          19.968053        7.030765       10.286724
  Ar           7.186951       15.821281        1.672631
  Ar          13.243011       11.673714        1.504881
  Ar          17.531726       18.533496        0.137857
  Ar          18.466382        5.635293       16.100749
  Ar          15.311375       10.386054       11.795107
  Ar          10.981131       17.195327       -0.000048
  Ar           5.393922        9.777570        7.784694
  Ar          17.275210        0.160096       19.593593
  Ar           9.178690        5.748704        6.410852
  Ar          13.659386       14.684669       17.004934
  Ar          18.425168        1.834524       17.154857
  Ar          16.013978       17.315736       13.407697
  Ar           7.459265       14.772327        5.945162
  Ar          16.305748        6.538877       14.922356
  Ar           4.807098       15.881014        8.550028
  Ar           4.820066        4.602374       20.000896
  Ar          14.932353       19.736488       19.203148
  Ar           9.984346        6.893004        1.989316
  Ar          18.440115        1.575887        9.380053
  Ar           7.273202       17.492118        0.121907
  Ar          -0.001482       19.950863       11.331037
  Ar          16.874393        0.941040        4.197400
  Ar          11.580371       10.405439       16.020120
  Ar           2.633278        5.898050        4.112998
  Ar          13.740375       20.000557       14.549974
  Ar           6.284043        0.002262       13.196919
  Ar          12.828150        9.320830       18.177142
  Ar           7.456791        2.055865        0.270176
  Ar          16.546975       11.543561        9.596724
  Ar          14.528869        8.750388       15.939641
  Ar           6.747058       11.806759       10.029734
  Ar          15.574734        0.638314       12.729467
  Ar          10.479589        0.667821       11.224687
  Ar           7.736461        4.250702       17.822273
  Ar          17.606350        3.979378        9.479754
  Ar           6.102599        4.186355       15.800014
  Ar           1.535608       12.840123       18.025653
  Ar           1.228833       17.563363        7.012703
  Ar          15.990495        2.145360        9.929843
  Ar           8.950523       19.011438       14.437483
  Ar          18.958052        5.735632        8.339145
  Ar          17.937894        8.719992       14.611248
  Ar           0.596367       16.067083       17.576971
  Ar          13.314008        4.655499        4.252120
  Ar          11.287577       15.351288       17.177017
  Ar          16.458198        4.547405       13.207239
  Ar           2.853044       19.357062       11.210776
  Ar          12.652469       18.079310       14.355199
  Ar           0.201387        6.256193        7.119902
  Ar           2.570562        7.246937       17.385009
  Ar          17.930131        7.418483        1.109277
  Ar          19.593080        0.677257       14.110621
  Ar          15.686060       10.365054       18.754555
  Ar          15.932451       19.988523       17.254153
  Ar          14.679567        2.656232        2.666570
  Ar          14.188730        8.851731       10.617690
  Ar           4.345450       16.974758       19.836358
  Ar          11.604406        6.172796       12.917820
  Ar          15.414072        0.819407        6.384397
  Ar          14.887680       10.973734       14.602741
  Ar           9.439613        2.947270       12.735933
  Ar           7.170144        4.497411       13.473314
  Ar           2.888182        4.846442       18.315222
  Ar           6.894380        6.862995        9.905149
  Ar           4.586964        2.743544       17.038453
  Ar          17.494614       13.874409        3.961100
  Ar           5.520529       12.345141       15.573492
  Ar          19.841473       10.030920       14.193780
  Ar          10.028301        3.754456       10.225162
  Ar           4.333988        7.304255       19.181684
  Ar           4.267512        2.922097       11.168789
  Ar           9.063614        7.210501       10.142771
  Ar           4.249719        5.858395        8.837957
  Ar           5.161015        3.651949        0.678493
  Ar           0.873016        4.963072        8.841457
  Ar          10.624656       10.825891        1.410987
  Ar          14.173559        0.655976       10.473154
  Ar           4.225006       16.163288       10.703399
  Ar          16.262429        4.308268       -0.001346
  Ar          18.193697       12.776709       16.557621
  Ar          16.154327        7.594289       19.993886
  Ar          19.576172        4.570920        0.988530
  Ar           4.779989        8.975319        3.456604
  Ar          19.606579       17.957551        4.271407
  Ar          17.861371       17.973764       11.716117
  Ar          16.840717       11.884010       12.815328
  Ar          19.479135       16.467667       13.226527
  Ar           3.630042       14.911717       20.002859
  Ar          11.285207        9.935023        8.877855
  Ar           0.783523        3.808733        5.057305
  Ar           8.645602       10.720722        6.578672
  Ar          12.777337        0.011579        4.571133
  Ar          10.386972       -0.001053       14.739392
  Ar          14.789261       17.607838       16.448550
  Ar          15.698113        4.592885       17.602085
  Ar           7.799345       15.017066       15.812495
  Ar           5.084604       18.980635        9.278972
  Ar           8.788435        1.468916       14.494189
  Ar          11.200221        0.457670        8.963068
  Ar          15.387486        7.288257       17.953205
  Ar           7.229810       -0.001427       18.346024
  Ar          11.834436        3.493181       20.000469
  Ar          12.208767        6.173249       -0.000086
  Ar          12.567789       12.788190       14.116488
  Ar          10.467669        4.293679       18.184010
  Ar           5.601756       16.330777       14.883082
  Ar           6.647316       14.970196       11.948933
  Ar          15.910676        2.366363       17.731786
  Ar           6.640325        3.216561       11.712981
  Ar           7.644712        1.248179       11.998101
  Ar           0.338369        5.924162       12.910927
  Ar          12.929007       18.592630        3.375151
  Ar           2.655617        6.807165       10.185709
  Ar           2.093882       14.044499        7.991937
  Ar          10.475251       13.567960       16.176395
  Ar           6.277681        5.756881       18.746433
  Ar           3.181364       16.875371       16.252554
  Ar           5.483495       17.571988        4.076855
  Ar           7.605270        4.113875        9.653210
  Ar           5.273773       10.791054       17.480745
  Ar          18.211931       17.743613        6.973493
  Ar          19.092399        9.988812        8.807916
  Ar           3.829723        2.445736       19.460885
  Ar          13.673147        5.479794        2.123212
  Ar          18.638954        9.485245       10.970719
  Ar           1.940886       14.675268       11.764364
  Ar          12.477335       10.700522        5.261778
  Ar           5.440439        8.932089       15.938183
  Ar          16.654737       19.544140       13.289492
  Ar           9.010907        9.749598        8.947111
  Ar           0.557864       12.588677        6.692606
  Ar          10.053930        7.293635       18.643738
  Ar          12.807751        7.701804        8.763235
  Ar           5.397286       15.465621        5.326178
  Ar          16.556685        7.805773       12.226770
  Ar          16.030072       15.650661       16.931836
  Ar           1.706538        9.898224       17.795881
  Ar           4.172767        6.308632       15.125646
  Ar           3.406702       17.844550        3.227967
  Ar           7.831060        6.631798       13.677857
  Ar          10.717195        0.000106       17.710765
  Ar          14.129560       15.643369        3.990483
  Ar           1.490677       18.975797       19.959480
  Ar          10.107554       16.646016        6.446667
  Ar           8.700992        8.286480       15.527683
  Ar          17.934027       20.000060        2.701244
  Ar          13.650409       19.714680        5.522832
  Ar          18.870098       18.446773       19.734014
  Ar           7.265989        1.181877        8.128029
  Ar           6.133476       14.327103        3.497865
  Ar           9.589806       12.985024       14.143718
  Ar          11.143400       19.647444        8.061293
  Ar           6.733933       12.665213       19.064677
  Ar           5.810177        6.281990       16.603528
  Ar           7.148713       16.884105        6.908595
  Ar           6.888141       17.814249       10.691707
